<?xml version="1.0" encoding="UTF-8"?>

<!-- generated on 2026-03-24T00:04:47.630699+05:30 by Eclipse SUMO netedit 1.26.0
<neteditConfiguration xmlns:xsi="http://www.w3.org/2001/XMLSchema-instance" xsi:noNamespaceSchemaLocation="http://sumo.dlr.de/xsd/neteditConfiguration.xsd">

    <input>
        <sumo-net-file value="sumo_env\network.net.xml"/>
    </input>

    <output>
        <output-file value="sumo_env\network.net.xml"/>
    </output>

    <processing>
        <geometry.min-radius.fix.railways value="false"/>
        <geometry.avoid-overlap value="false"/>
        <geometry.max-grade.fix value="false"/>
        <offset.disable-normalization value="true"/>
        <lefthand value="0"/>
    </processing>

    <junctions>
        <no-turnarounds value="true"/>
        <junctions.corner-detail value="5"/>
        <junctions.limit-turn-speed value="5.50"/>
        <rectangular-lane-cut value="0"/>
    </junctions>

    <pedestrian>
        <walkingareas value="0"/>
    </pedestrian>

</neteditConfiguration>
-->

<net version="1.20" junctionCornerDetail="5" limitTurnSpeed="5.50" avoidOverlap="0" xmlns:xsi="http://www.w3.org/2001/XMLSchema-instance" xsi:noNamespaceSchemaLocation="http://sumo.dlr.de/xsd/net_file.xsd">

    <location netOffset="0.00,0.00" convBoundary="-200.00,-300.00,300.00,300.00" origBoundary="-10000000000.00,-10000000000.00,10000000000.00,10000000000.00" projParameter="!"/>

    <edge id=":J0_0" function="internal">
        <lane id=":J0_0_0" index="0" speed="6.51" length="9.03" shape="-1.60,107.20 -1.95,104.75 -3.00,103.00 -4.75,101.95 -7.20,101.60"/>
    </edge>
    <edge id=":J0_1" function="internal">
        <lane id=":J0_1_0" index="0" speed="8.00" length="14.19" shape="-1.60,107.20 -1.05,103.35 0.60,100.60 3.35,98.95 7.20,98.40"/>
    </edge>
    <edge id=":J0_2" function="internal">
        <lane id=":J0_2_0" index="0" speed="6.51" length="9.03" shape="7.20,101.60 4.75,101.95 3.00,103.00 1.95,104.75 1.60,107.20"/>
    </edge>
    <edge id=":J0_3" function="internal">
        <lane id=":J0_3_0" index="0" speed="13.89" length="14.40" shape="7.20,101.60 -7.20,101.60"/>
    </edge>
    <edge id=":J0_4" function="internal">
        <lane id=":J0_4_0" index="0" speed="13.89" length="14.40" shape="-7.20,98.40 7.20,98.40"/>
    </edge>
    <edge id=":J0_5" function="internal">
        <lane id=":J0_5_0" index="0" speed="8.00" length="4.07" shape="-7.20,98.40 -3.35,98.95 -3.20,99.04"/>
    </edge>
    <edge id=":J0_6" function="internal">
        <lane id=":J0_6_0" index="0" speed="8.00" length="10.13" shape="-3.20,99.04 -0.60,100.60 1.05,103.35 1.60,107.20"/>
    </edge>
    <edge id=":J1_0" function="internal">
        <lane id=":J1_0_0" index="0" speed="13.89" length="14.40" shape="7.20,1.60 -7.20,1.60"/>
    </edge>
    <edge id=":J1_1" function="internal">
        <lane id=":J1_1_0" index="0" speed="8.00" length="4.07" shape="7.20,1.60 3.35,1.05 3.20,0.96"/>
    </edge>
    <edge id=":J1_6" function="internal">
        <lane id=":J1_6_0" index="0" speed="8.00" length="10.13" shape="3.20,0.96 0.60,-0.60 -1.05,-3.35 -1.60,-7.20"/>
    </edge>
    <edge id=":J1_2" function="internal">
        <lane id=":J1_2_0" index="0" speed="6.51" length="9.03" shape="1.60,-7.20 1.95,-4.75 3.00,-3.00 4.75,-1.95 7.20,-1.60"/>
    </edge>
    <edge id=":J1_3" function="internal">
        <lane id=":J1_3_0" index="0" speed="8.00" length="14.19" shape="1.60,-7.20 1.05,-3.35 -0.60,-0.60 -3.35,1.05 -7.20,1.60"/>
    </edge>
    <edge id=":J1_4" function="internal">
        <lane id=":J1_4_0" index="0" speed="6.51" length="9.03" shape="-7.20,-1.60 -4.75,-1.95 -3.00,-3.00 -1.95,-4.75 -1.60,-7.20"/>
    </edge>
    <edge id=":J1_5" function="internal">
        <lane id=":J1_5_0" index="0" speed="13.89" length="14.40" shape="-7.20,-1.60 7.20,-1.60"/>
    </edge>
    <edge id=":J10_0" function="internal">
        <lane id=":J10_0_0" index="0" speed="13.89" length="14.40" shape="207.20,1.60 192.80,1.60"/>
    </edge>
    <edge id=":J10_1" function="internal">
        <lane id=":J10_1_0" index="0" speed="8.00" length="4.07" shape="207.20,1.60 203.35,1.05 203.20,0.96"/>
    </edge>
    <edge id=":J10_6" function="internal">
        <lane id=":J10_6_0" index="0" speed="8.00" length="10.13" shape="203.20,0.96 200.60,-0.60 198.95,-3.35 198.40,-7.20"/>
    </edge>
    <edge id=":J10_2" function="internal">
        <lane id=":J10_2_0" index="0" speed="6.51" length="9.03" shape="201.60,-7.20 201.95,-4.75 203.00,-3.00 204.75,-1.95 207.20,-1.60"/>
    </edge>
    <edge id=":J10_3" function="internal">
        <lane id=":J10_3_0" index="0" speed="8.00" length="14.19" shape="201.60,-7.20 201.05,-3.35 199.40,-0.60 196.65,1.05 192.80,1.60"/>
    </edge>
    <edge id=":J10_4" function="internal">
        <lane id=":J10_4_0" index="0" speed="6.51" length="9.03" shape="192.80,-1.60 195.25,-1.95 197.00,-3.00 198.05,-4.75 198.40,-7.20"/>
    </edge>
    <edge id=":J10_5" function="internal">
        <lane id=":J10_5_0" index="0" speed="13.89" length="14.40" shape="192.80,-1.60 207.20,-1.60"/>
    </edge>
    <edge id=":J11_0" function="internal">
        <lane id=":J11_0_0" index="0" speed="6.51" length="9.03" shape="98.40,-192.80 98.05,-195.25 97.00,-197.00 95.25,-198.05 92.80,-198.40"/>
    </edge>
    <edge id=":J11_1" function="internal">
        <lane id=":J11_1_0" index="0" speed="13.89" length="14.40" shape="98.40,-192.80 98.40,-207.20"/>
    </edge>
    <edge id=":J11_2" function="internal">
        <lane id=":J11_2_0" index="0" speed="8.00" length="4.07" shape="98.40,-192.80 98.95,-196.65 99.04,-196.80"/>
    </edge>
    <edge id=":J11_12" function="internal">
        <lane id=":J11_12_0" index="0" speed="8.00" length="10.13" shape="99.04,-196.80 100.60,-199.40 103.35,-201.05 107.20,-201.60"/>
    </edge>
    <edge id=":J11_3" function="internal">
        <lane id=":J11_3_0" index="0" speed="6.51" length="9.03" shape="107.20,-198.40 104.75,-198.05 103.00,-197.00 101.95,-195.25 101.60,-192.80"/>
    </edge>
    <edge id=":J11_4" function="internal">
        <lane id=":J11_4_0" index="0" speed="13.89" length="14.40" shape="107.20,-198.40 92.80,-198.40"/>
    </edge>
    <edge id=":J11_5" function="internal">
        <lane id=":J11_5_0" index="0" speed="8.00" length="4.07" shape="107.20,-198.40 103.35,-198.95 103.20,-199.04"/>
    </edge>
    <edge id=":J11_13" function="internal">
        <lane id=":J11_13_0" index="0" speed="8.00" length="10.13" shape="103.20,-199.04 100.60,-200.60 98.95,-203.35 98.40,-207.20"/>
    </edge>
    <edge id=":J11_6" function="internal">
        <lane id=":J11_6_0" index="0" speed="6.51" length="9.03" shape="101.60,-207.20 101.95,-204.75 103.00,-203.00 104.75,-201.95 107.20,-201.60"/>
    </edge>
    <edge id=":J11_7" function="internal">
        <lane id=":J11_7_0" index="0" speed="13.89" length="14.40" shape="101.60,-207.20 101.60,-192.80"/>
    </edge>
    <edge id=":J11_8" function="internal">
        <lane id=":J11_8_0" index="0" speed="8.00" length="4.07" shape="101.60,-207.20 101.05,-203.35 100.96,-203.20"/>
    </edge>
    <edge id=":J11_14" function="internal">
        <lane id=":J11_14_0" index="0" speed="8.00" length="10.13" shape="100.96,-203.20 99.40,-200.60 96.65,-198.95 92.80,-198.40"/>
    </edge>
    <edge id=":J11_9" function="internal">
        <lane id=":J11_9_0" index="0" speed="6.51" length="9.03" shape="92.80,-201.60 95.25,-201.95 97.00,-203.00 98.05,-204.75 98.40,-207.20"/>
    </edge>
    <edge id=":J11_10" function="internal">
        <lane id=":J11_10_0" index="0" speed="13.89" length="14.40" shape="92.80,-201.60 107.20,-201.60"/>
    </edge>
    <edge id=":J11_11" function="internal">
        <lane id=":J11_11_0" index="0" speed="8.00" length="4.07" shape="92.80,-201.60 96.65,-201.05 96.80,-200.96"/>
    </edge>
    <edge id=":J11_15" function="internal">
        <lane id=":J11_15_0" index="0" speed="8.00" length="10.13" shape="96.80,-200.96 99.40,-199.40 101.05,-196.65 101.60,-192.80"/>
    </edge>
    <edge id=":J12_0" function="internal">
        <lane id=":J12_0_0" index="0" speed="6.51" length="9.03" shape="107.20,101.60 104.75,101.95 103.00,103.00 101.95,104.75 101.60,107.20"/>
    </edge>
    <edge id=":J12_1" function="internal">
        <lane id=":J12_1_0" index="0" speed="13.89" length="17.60" shape="107.20,101.60 89.60,101.60"/>
    </edge>
    <edge id=":J12_2" function="internal">
        <lane id=":J12_2_0" index="0" speed="8.42" length="3.91" shape="107.20,101.60 103.35,100.93"/>
    </edge>
    <edge id=":J12_13" function="internal">
        <lane id=":J12_13_0" index="0" speed="8.42" length="11.91" shape="103.35,100.93 100.60,98.91 98.95,95.54 98.40,90.82"/>
    </edge>
    <edge id=":J12_3" function="internal">
        <lane id=":J12_3_0" index="0" speed="7.02" length="10.67" shape="101.60,90.82 101.95,94.14 103.00,96.51 104.75,97.93 107.20,98.40"/>
    </edge>
    <edge id=":J12_4" function="internal">
        <lane id=":J12_4_0" index="0" speed="13.89" length="16.38" shape="101.60,90.82 101.60,107.20"/>
    </edge>
    <edge id=":J12_5" function="internal">
        <lane id=":J12_5_0" index="0" speed="9.03" length="18.38" shape="101.60,90.82 100.85,95.54 98.60,98.91 94.85,100.93 89.60,101.60"/>
    </edge>
    <edge id=":J12_6" function="internal">
        <lane id=":J12_6_0" index="0" speed="6.11" length="10.63" shape="90.74,93.58 94.09,94.84 96.48,94.81 97.92,93.47 98.40,90.82"/>
    </edge>
    <edge id=":J12_7" function="internal">
        <lane id=":J12_7_0" index="0" speed="13.89" length="17.27" shape="90.74,93.58 94.49,95.28 98.77,96.83 103.15,97.96 107.20,98.40"/>
    </edge>
    <edge id=":J12_8" function="internal">
        <lane id=":J12_8_0" index="0" speed="11.12" length="18.35" shape="90.74,93.58 95.49,96.47 98.88,99.70 100.92,103.28 101.60,107.20"/>
    </edge>
    <edge id=":J12_9" function="internal">
        <lane id=":J12_9_0" index="0" speed="6.95" length="19.31" shape="90.74,93.58 96.68,97.09 98.47,99.60 96.11,101.10 89.60,101.60"/>
    </edge>
    <edge id=":J12_10" function="internal">
        <lane id=":J12_10_0" index="0" speed="7.74" length="13.22" shape="89.60,98.40 93.45,97.93 96.20,96.51 97.85,94.14 98.40,90.82"/>
    </edge>
    <edge id=":J12_11" function="internal">
        <lane id=":J12_11_0" index="0" speed="13.89" length="17.60" shape="89.60,98.40 107.20,98.40"/>
    </edge>
    <edge id=":J12_12" function="internal">
        <lane id=":J12_12_0" index="0" speed="8.67" length="5.56" shape="89.60,98.40 94.85,98.95 95.11,99.06"/>
    </edge>
    <edge id=":J12_14" function="internal">
        <lane id=":J12_14_0" index="0" speed="8.67" length="11.29" shape="95.11,99.06 98.60,100.60 100.85,103.35 101.60,107.20"/>
    </edge>
    <edge id=":J13_0" function="internal">
        <lane id=":J13_0_0" index="0" speed="12.73" length="15.02" shape="207.16,109.42 203.45,106.00 200.13,103.56 197.20,102.09 194.67,101.60"/>
    </edge>
    <edge id=":J13_1" function="internal">
        <lane id=":J13_1_0" index="0" speed="7.42" length="19.31" shape="207.16,109.42 203.31,104.60 202.79,101.16 205.59,99.09 211.73,98.40"/>
    </edge>
    <edge id=":J13_2" function="internal">
        <lane id=":J13_2_0" index="0" speed="5.47" length="9.74" shape="211.73,101.60 208.63,101.95 207.22,102.99 207.48,104.73 209.42,107.16"/>
    </edge>
    <edge id=":J13_3" function="internal">
        <lane id=":J13_3_0" index="0" speed="13.89" length="17.05" shape="211.73,101.60 194.67,101.60"/>
    </edge>
    <edge id=":J13_4" function="internal">
        <lane id=":J13_4_0" index="0" speed="13.89" length="17.05" shape="194.67,98.40 211.73,98.40"/>
    </edge>
    <edge id=":J13_5" function="internal">
        <lane id=":J13_5_0" index="0" speed="13.73" length="3.53" shape="194.67,98.40 197.84,98.95 198.13,99.08"/>
    </edge>
    <edge id=":J13_6" function="internal">
        <lane id=":J13_6_0" index="0" speed="13.73" length="13.98" shape="198.13,99.08 201.36,100.59 205.22,103.33 209.42,107.16"/>
    </edge>
    <edge id=":J17_0" function="internal">
        <lane id=":J17_0_0" index="0" speed="13.89" length="3.00" shape="1.50,-198.40 -1.50,-198.40"/>
    </edge>
    <edge id=":J18_0" function="internal">
        <lane id=":J18_0_0" index="0" speed="5.47" length="9.74" shape="-88.27,-198.40 -91.37,-198.05 -92.78,-197.01 -92.52,-195.27 -90.58,-192.84"/>
    </edge>
    <edge id=":J18_1" function="internal">
        <lane id=":J18_1_0" index="0" speed="13.89" length="15.09" shape="-108.53,-201.60 -103.96,-201.05 -99.44,-199.41 -94.98,-196.67 -94.64,-196.38"/>
    </edge>
    <edge id=":J18_2" function="internal">
        <lane id=":J18_2_0" index="0" speed="13.89" length="5.39" shape="-94.64,-196.38 -90.58,-192.84"/>
    </edge>
    <edge id=":J19_0" function="internal">
        <lane id=":J19_0_0" index="0" speed="6.63" length="3.77" shape="-200.19,102.07 -200.81,101.33 -201.25,100.52 -201.51,99.63 -201.60,98.67"/>
    </edge>
    <edge id=":J19_1" function="internal">
        <lane id=":J19_1_0" index="0" speed="4.20" length="1.26" shape="-198.40,98.67 -198.37,98.99 -198.28,99.29 -198.14,99.56 -197.93,99.81"/>
    </edge>
    <edge id=":J2_0" function="internal">
        <lane id=":J2_0_0" index="0" speed="6.51" length="9.03" shape="98.40,7.20 98.05,4.75 97.00,3.00 95.25,1.95 92.80,1.60"/>
    </edge>
    <edge id=":J2_1" function="internal">
        <lane id=":J2_1_0" index="0" speed="13.89" length="14.40" shape="98.40,7.20 98.40,-7.20"/>
    </edge>
    <edge id=":J2_2" function="internal">
        <lane id=":J2_2_0" index="0" speed="8.00" length="4.07" shape="98.40,7.20 98.95,3.35 99.04,3.20"/>
    </edge>
    <edge id=":J2_12" function="internal">
        <lane id=":J2_12_0" index="0" speed="8.00" length="10.13" shape="99.04,3.20 100.60,0.60 103.35,-1.05 107.20,-1.60"/>
    </edge>
    <edge id=":J2_3" function="internal">
        <lane id=":J2_3_0" index="0" speed="6.51" length="9.03" shape="107.20,1.60 104.75,1.95 103.00,3.00 101.95,4.75 101.60,7.20"/>
    </edge>
    <edge id=":J2_4" function="internal">
        <lane id=":J2_4_0" index="0" speed="13.89" length="14.40" shape="107.20,1.60 92.80,1.60"/>
    </edge>
    <edge id=":J2_5" function="internal">
        <lane id=":J2_5_0" index="0" speed="8.00" length="4.07" shape="107.20,1.60 103.35,1.05 103.20,0.96"/>
    </edge>
    <edge id=":J2_13" function="internal">
        <lane id=":J2_13_0" index="0" speed="8.00" length="10.13" shape="103.20,0.96 100.60,-0.60 98.95,-3.35 98.40,-7.20"/>
    </edge>
    <edge id=":J2_6" function="internal">
        <lane id=":J2_6_0" index="0" speed="6.51" length="9.03" shape="101.60,-7.20 101.95,-4.75 103.00,-3.00 104.75,-1.95 107.20,-1.60"/>
    </edge>
    <edge id=":J2_7" function="internal">
        <lane id=":J2_7_0" index="0" speed="13.89" length="14.40" shape="101.60,-7.20 101.60,7.20"/>
    </edge>
    <edge id=":J2_8" function="internal">
        <lane id=":J2_8_0" index="0" speed="8.00" length="4.07" shape="101.60,-7.20 101.05,-3.35 100.96,-3.20"/>
    </edge>
    <edge id=":J2_14" function="internal">
        <lane id=":J2_14_0" index="0" speed="8.00" length="10.13" shape="100.96,-3.20 99.40,-0.60 96.65,1.05 92.80,1.60"/>
    </edge>
    <edge id=":J2_9" function="internal">
        <lane id=":J2_9_0" index="0" speed="6.51" length="9.03" shape="92.80,-1.60 95.25,-1.95 97.00,-3.00 98.05,-4.75 98.40,-7.20"/>
    </edge>
    <edge id=":J2_10" function="internal">
        <lane id=":J2_10_0" index="0" speed="13.89" length="14.40" shape="92.80,-1.60 107.20,-1.60"/>
    </edge>
    <edge id=":J2_11" function="internal">
        <lane id=":J2_11_0" index="0" speed="8.00" length="4.07" shape="92.80,-1.60 96.65,-1.05 96.80,-0.96"/>
    </edge>
    <edge id=":J2_15" function="internal">
        <lane id=":J2_15_0" index="0" speed="8.00" length="10.13" shape="96.80,-0.96 99.40,0.60 101.05,3.35 101.60,7.20"/>
    </edge>
    <edge id=":J20_0" function="internal">
        <lane id=":J20_0_0" index="0" speed="13.89" length="0.10" shape="-201.60,0.00 -201.60,0.00"/>
    </edge>
    <edge id=":J20_1" function="internal">
        <lane id=":J20_1_0" index="0" speed="13.89" length="0.10" shape="-198.40,0.00 -198.40,0.00"/>
    </edge>
    <edge id=":J3_0" function="internal">
        <lane id=":J3_0_0" index="0" speed="13.89" length="0.10" shape="98.40,-100.00 98.40,-100.00"/>
    </edge>
    <edge id=":J3_1" function="internal">
        <lane id=":J3_1_0" index="0" speed="13.89" length="0.10" shape="101.60,-100.00 101.60,-100.00"/>
    </edge>
    <edge id=":J4_0" function="internal">
        <lane id=":J4_0_0" index="0" speed="13.89" length="12.80" shape="-101.60,5.60 -101.60,-7.20"/>
    </edge>
    <edge id=":J4_1" function="internal">
        <lane id=":J4_1_0" index="0" speed="9.87" length="22.14" shape="-101.60,5.60 -100.40,2.45 -96.81,0.20 -90.83,-1.15 -82.44,-1.60"/>
    </edge>
    <edge id=":J4_2" function="internal">
        <lane id=":J4_2_0" index="0" speed="8.36" length="21.09" shape="-101.60,5.60 -100.05,2.22 -95.95,1.77 -90.18,3.44 -83.58,6.42"/>
    </edge>
    <edge id=":J4_3" function="internal">
        <lane id=":J4_3_0" index="0" speed="5.60" length="11.85" shape="-82.44,1.60 -86.56,1.90 -88.12,2.80 -87.13,4.31 -83.58,6.42"/>
    </edge>
    <edge id=":J4_4" function="internal">
        <lane id=":J4_4_0" index="0" speed="8.78" length="17.28" shape="-82.44,1.60 -89.43,1.85 -94.41,2.60 -97.40,3.85 -98.40,5.60"/>
    </edge>
    <edge id=":J4_5" function="internal">
        <lane id=":J4_5_0" index="0" speed="10.09" length="23.16" shape="-82.44,1.60 -90.83,1.05 -96.81,-0.60 -100.40,-3.35 -101.60,-7.20"/>
    </edge>
    <edge id=":J4_6" function="internal">
        <lane id=":J4_6_0" index="0" speed="8.99" length="18.20" shape="-98.40,-7.20 -97.40,-4.75 -94.41,-3.00 -89.43,-1.95 -82.44,-1.60"/>
    </edge>
    <edge id=":J4_7" function="internal">
        <lane id=":J4_7_0" index="0" speed="11.84" length="20.87" shape="-98.40,-7.20 -97.47,-4.02 -94.70,-0.69 -90.07,2.79 -83.58,6.42"/>
    </edge>
    <edge id=":J4_8" function="internal">
        <lane id=":J4_8_0" index="0" speed="13.89" length="12.80" shape="-98.40,-7.20 -98.40,5.60"/>
    </edge>
    <edge id=":J7_0" function="internal">
        <lane id=":J7_0_0" index="0" speed="4.20" length="1.26" shape="-1.60,-98.67 -1.63,-98.99 -1.72,-99.29 -1.86,-99.56 -2.07,-99.81"/>
    </edge>
    <edge id=":J7_1" function="internal">
        <lane id=":J7_1_0" index="0" speed="6.63" length="3.77" shape="0.19,-102.07 0.81,-101.33 1.25,-100.52 1.51,-99.63 1.60,-98.67"/>
    </edge>
    <edge id=":J8_0" function="internal">
        <lane id=":J8_0_0" index="0" speed="13.89" length="14.40" shape="-101.60,107.20 -101.60,92.80"/>
    </edge>
    <edge id=":J8_1" function="internal">
        <lane id=":J8_1_0" index="0" speed="8.00" length="10.30" shape="-101.60,107.20 -101.05,103.35 -99.40,100.60 -96.65,98.95"/>
    </edge>
    <edge id=":J8_4" function="internal">
        <lane id=":J8_4_0" index="0" speed="8.00" length="3.89" shape="-96.65,98.95 -92.80,98.40"/>
    </edge>
    <edge id=":J8_2" function="internal">
        <lane id=":J8_2_0" index="0" speed="8.00" length="14.19" shape="-92.80,101.60 -96.65,101.05 -99.40,99.40 -101.05,96.65 -101.60,92.80"/>
    </edge>
    <edge id=":J8_3" function="internal">
        <lane id=":J8_3_0" index="0" speed="6.51" length="9.03" shape="-98.40,92.80 -98.05,95.25 -97.00,97.00 -95.25,98.05 -92.80,98.40"/>
    </edge>
    <edge id=":J9_0" function="internal">
        <lane id=":J9_0_0" index="0" speed="13.89" length="12.53" shape="-100.57,201.70 -109.42,192.84"/>
    </edge>
    <edge id=":J9_1" function="internal">
        <lane id=":J9_1_0" index="0" speed="12.10" length="1.66" shape="-100.57,201.70 -101.02,200.47 -101.06,200.12"/>
    </edge>
    <edge id=":J9_4" function="internal">
        <lane id=":J9_4_0" index="0" speed="12.10" length="11.87" shape="-101.06,200.12 -101.34,197.82 -101.54,193.76 -101.60,188.27"/>
    </edge>
    <edge id=":J9_2" function="internal">
        <lane id=":J9_2_0" index="0" speed="5.47" length="9.74" shape="-107.16,190.58 -104.73,192.52 -102.99,192.78 -101.95,191.37 -101.60,188.27"/>
    </edge>
    <edge id=":J9_3" function="internal">
        <lane id=":J9_3_0" index="0" speed="13.89" length="12.53" shape="-107.16,190.58 -98.30,199.43"/>
    </edge>

    <edge id="-E0" from="J12" to="J0" priority="-1">
        <lane id="-E0_0" index="0" speed="13.89" length="82.40" shape="89.60,101.60 7.20,101.60"/>
    </edge>
    <edge id="-E1" from="J3" to="J2" priority="-1">
        <lane id="-E1_0" index="0" speed="13.89" length="92.80" shape="101.60,-100.00 101.60,-7.20"/>
    </edge>
    <edge id="-E10" from="J10" to="J2" priority="-1">
        <lane id="-E10_0" index="0" speed="13.89" length="85.60" shape="192.80,1.60 107.20,1.60"/>
    </edge>
    <edge id="-E12" from="J11" to="J3" priority="-1">
        <lane id="-E12_0" index="0" speed="13.89" length="92.80" shape="101.60,-192.80 101.60,-100.00"/>
    </edge>
    <edge id="-E13" from="J2" to="J12" priority="-1">
        <lane id="-E13_0" index="0" speed="13.89" length="83.62" shape="101.60,7.20 101.60,90.82"/>
    </edge>
    <edge id="-E14" from="J15" to="J11" priority="-1">
        <lane id="-E14_0" index="0" speed="13.89" length="92.80" shape="101.60,-300.00 101.60,-207.20"/>
    </edge>
    <edge id="-E15" from="J16" to="J11" priority="-1">
        <lane id="-E15_0" index="0" speed="13.89" length="92.80" shape="200.00,-198.40 107.20,-198.40"/>
    </edge>
    <edge id="-E16" from="J17" to="J11" priority="-1">
        <lane id="-E16_0" index="0" speed="13.89" length="91.30" shape="1.50,-201.60 92.80,-201.60"/>
    </edge>
    <edge id="-E17" from="J18" to="J7" priority="-1">
        <lane id="-E17_0" index="0" speed="13.89" length="128.37" shape="-90.58,-192.84 0.19,-102.07"/>
    </edge>
    <edge id="-E18" from="J19" to="J9" priority="-1">
        <lane id="-E18_0" index="0" speed="13.89" length="128.37" shape="-197.93,99.81 -107.16,190.58"/>
    </edge>
    <edge id="-E19" from="J20" to="J19" priority="-1">
        <lane id="-E19_0" index="0" speed="13.89" length="98.67" shape="-198.40,0.00 -198.40,98.67"/>
    </edge>
    <edge id="-E2" from="J2" to="J1" priority="-1">
        <lane id="-E2_0" index="0" speed="13.89" length="85.60" shape="92.80,1.60 7.20,1.60"/>
    </edge>
    <edge id="-E20" from="J21" to="J20" priority="-1">
        <lane id="-E20_0" index="0" speed="13.89" length="100.00" shape="-198.40,-100.00 -198.40,0.00"/>
    </edge>
    <edge id="-E21" from="J22" to="J9" priority="-1">
        <lane id="-E21_0" index="0" speed="13.89" length="140.62" shape="-1.13,301.13 -100.57,201.70"/>
    </edge>
    <edge id="-E22" from="J24" to="J0" priority="-1">
        <lane id="-E22_0" index="0" speed="13.89" length="92.80" shape="-1.60,200.00 -1.60,107.20"/>
    </edge>
    <edge id="-E23" from="J25" to="J13" priority="-1">
        <lane id="-E23_0" index="0" speed="13.89" length="88.27" shape="300.00,101.60 211.73,101.60"/>
    </edge>
    <edge id="-E24" from="J26" to="J10" priority="-1">
        <lane id="-E24_0" index="0" speed="13.89" length="92.80" shape="201.60,-100.00 201.60,-7.20"/>
    </edge>
    <edge id="-E25" from="J27" to="J10" priority="-1">
        <lane id="-E25_0" index="0" speed="13.89" length="92.80" shape="300.00,1.60 207.20,1.60"/>
    </edge>
    <edge id="-E26" from="J28" to="J13" priority="-1">
        <lane id="-E26_0" index="0" speed="13.89" length="129.70" shape="298.87,201.13 207.16,109.42"/>
    </edge>
    <edge id="-E3" from="J4" to="J1" priority="-1">
        <lane id="-E3_0" index="0" speed="13.89" length="75.24" shape="-82.44,-1.60 -7.20,-1.60"/>
    </edge>
    <edge id="-E4" from="J12" to="J13" priority="-1">
        <lane id="-E4_0" index="0" speed="13.89" length="87.47" shape="107.20,98.40 194.67,98.40"/>
    </edge>
    <edge id="-E5" from="J4" to="J5" priority="-1">
        <lane id="-E5_0" index="0" speed="13.89" length="92.80" shape="-101.60,-7.20 -101.60,-100.00"/>
    </edge>
    <edge id="-E6" from="J7" to="J1" priority="-1">
        <lane id="-E6_0" index="0" speed="13.89" length="91.47" shape="1.60,-98.67 1.60,-7.20"/>
    </edge>
    <edge id="-E7" from="J8" to="J4" priority="-1">
        <lane id="-E7_0" index="0" speed="13.89" length="87.20" shape="-101.60,92.80 -101.60,5.60"/>
    </edge>
    <edge id="-E8" from="J0" to="J8" priority="-1">
        <lane id="-E8_0" index="0" speed="13.89" length="85.60" shape="-7.20,101.60 -92.80,101.60"/>
    </edge>
    <edge id="-E9" from="J9" to="J8" priority="-1">
        <lane id="-E9_0" index="0" speed="13.89" length="81.07" shape="-101.60,188.27 -101.60,107.20"/>
    </edge>
    <edge id="E0" from="J0" to="J12" priority="-1">
        <lane id="E0_0" index="0" speed="13.89" length="82.40" shape="7.20,98.40 89.60,98.40"/>
    </edge>
    <edge id="E1" from="J2" to="J3" priority="-1">
        <lane id="E1_0" index="0" speed="13.89" length="92.80" shape="98.40,-7.20 98.40,-100.00"/>
    </edge>
    <edge id="E10" from="J2" to="J10" priority="-1">
        <lane id="E10_0" index="0" speed="13.89" length="85.60" shape="107.20,-1.60 192.80,-1.60"/>
    </edge>
    <edge id="E11" from="J12" to="J14" priority="-1">
        <lane id="E11_0" index="0" speed="13.89" length="92.80" shape="101.60,107.20 101.60,200.00"/>
    </edge>
    <edge id="E12" from="J3" to="J11" priority="-1">
        <lane id="E12_0" index="0" speed="13.89" length="92.80" shape="98.40,-100.00 98.40,-192.80"/>
    </edge>
    <edge id="E13" from="J12" to="J2" priority="-1">
        <lane id="E13_0" index="0" speed="13.89" length="83.62" shape="98.40,90.82 98.40,7.20"/>
    </edge>
    <edge id="E14" from="J11" to="J15" priority="-1">
        <lane id="E14_0" index="0" speed="13.89" length="92.80" shape="98.40,-207.20 98.40,-300.00"/>
    </edge>
    <edge id="E15" from="J11" to="J16" priority="-1">
        <lane id="E15_0" index="0" speed="13.89" length="92.80" shape="107.20,-201.60 200.00,-201.60"/>
    </edge>
    <edge id="E16" from="J11" to="J17" priority="-1">
        <lane id="E16_0" index="0" speed="13.89" length="91.30" shape="92.80,-198.40 1.50,-198.40"/>
    </edge>
    <edge id="E17" from="J7" to="J18" priority="-1">
        <lane id="E17_0" index="0" speed="13.89" length="128.37" shape="-2.07,-99.81 -92.84,-190.58"/>
    </edge>
    <edge id="E18" from="J9" to="J19" priority="-1">
        <lane id="E18_0" index="0" speed="13.89" length="128.37" shape="-109.42,192.84 -200.19,102.07"/>
    </edge>
    <edge id="E19" from="J19" to="J20" priority="-1">
        <lane id="E19_0" index="0" speed="13.89" length="98.67" shape="-201.60,98.67 -201.60,0.00"/>
    </edge>
    <edge id="E2" from="J1" to="J2" priority="-1">
        <lane id="E2_0" index="0" speed="13.89" length="85.60" shape="7.20,-1.60 92.80,-1.60"/>
    </edge>
    <edge id="E20" from="J20" to="J21" priority="-1">
        <lane id="E20_0" index="0" speed="13.89" length="100.00" shape="-201.60,0.00 -201.60,-100.00"/>
    </edge>
    <edge id="E21" from="J9" to="J22" priority="-1">
        <lane id="E21_0" index="0" speed="13.89" length="140.62" shape="-98.30,199.43 1.13,298.87"/>
    </edge>
    <edge id="E22" from="J0" to="J24" priority="-1">
        <lane id="E22_0" index="0" speed="13.89" length="92.80" shape="1.60,107.20 1.60,200.00"/>
    </edge>
    <edge id="E23" from="J13" to="J25" priority="-1">
        <lane id="E23_0" index="0" speed="13.89" length="88.27" shape="211.73,98.40 300.00,98.40"/>
    </edge>
    <edge id="E24" from="J10" to="J26" priority="-1">
        <lane id="E24_0" index="0" speed="13.89" length="92.80" shape="198.40,-7.20 198.40,-100.00"/>
    </edge>
    <edge id="E25" from="J10" to="J27" priority="-1">
        <lane id="E25_0" index="0" speed="13.89" length="92.80" shape="207.20,-1.60 300.00,-1.60"/>
    </edge>
    <edge id="E26" from="J13" to="J28" priority="-1">
        <lane id="E26_0" index="0" speed="13.89" length="129.70" shape="209.42,107.16 301.13,198.87"/>
    </edge>
    <edge id="E27" from="J4" to="J12" priority="-1">
        <lane id="E27_0" index="0" speed="13.89" length="194.90" shape="-83.58,6.42 90.74,93.58"/>
    </edge>
    <edge id="E28" from="J17" to="J18" priority="-1">
        <lane id="E28_0" index="0" speed="13.89" length="86.77" shape="-1.50,-198.40 -88.27,-198.40"/>
    </edge>
    <edge id="E3" from="J1" to="J4" priority="-1">
        <lane id="E3_0" index="0" speed="13.89" length="75.24" shape="-7.20,1.60 -82.44,1.60"/>
    </edge>
    <edge id="E4" from="J13" to="J12" priority="-1">
        <lane id="E4_0" index="0" speed="13.89" length="87.47" shape="194.67,101.60 107.20,101.60"/>
    </edge>
    <edge id="E5" from="J5" to="J4" priority="-1">
        <lane id="E5_0" index="0" speed="13.89" length="92.80" shape="-98.40,-100.00 -98.40,-7.20"/>
    </edge>
    <edge id="E6" from="J1" to="J7" priority="-1">
        <lane id="E6_0" index="0" speed="13.89" length="91.47" shape="-1.60,-7.20 -1.60,-98.67"/>
    </edge>
    <edge id="E7" from="J4" to="J8" priority="-1">
        <lane id="E7_0" index="0" speed="13.89" length="87.20" shape="-98.40,5.60 -98.40,92.80"/>
    </edge>
    <edge id="E8" from="J8" to="J0" priority="-1">
        <lane id="E8_0" index="0" speed="13.89" length="85.60" shape="-92.80,98.40 -7.20,98.40"/>
    </edge>
    <edge id="E9" from="J6" to="J18" priority="-1">
        <lane id="E9_0" index="0" speed="13.89" length="91.47" shape="-200.00,-201.60 -108.53,-201.60"/>
    </edge>

    <tlLogic id="J0" type="static" programID="0" offset="0">
        <phase duration="42" state="rrGGGg"/>
        <phase duration="3"  state="rrGyyy"/>
        <phase duration="42" state="GGGrrr"/>
        <phase duration="3"  state="yyGrrr"/>
    </tlLogic>
    <tlLogic id="J1" type="static" programID="0" offset="0">
        <phase duration="42" state="GGgrrrGGgrrr"/>
        <phase duration="3"  state="yyyrrryyyrrr"/>
        <phase duration="42" state="rrrGGgrrrGGg"/>